Circuit: * Z:\home\user\Documents\PCB\transistor_clock\LTSpice\Dividers.asc

Direct Newton iteration failed to find .op point.  (Use ".option noopiter" to skip.)
Starting Gmin stepping
Gmin = 10
Gmin = 1.07374
Gmin = 0.115292
Gmin = 0.0123794
Gmin = 0.00132923
Gmin = 0.000142725
Gmin = 1.5325e-05
Gmin = 1.6455e-06
Gmin = 1.76685e-07
Gmin = 1.89714e-08
Gmin = 2.03704e-09
Gmin = 2.18725e-10
Gmin = 2.34854e-11
Gmin = 2.52173e-12
Gmin = 2.70769e-13
Gmin = 0
Gmin stepping succeeded in finding the operating point.


Date: Wed Sep 27 11:18:42 2023
Total elapsed time: 4.801 seconds.

tnom = 27
temp = 27
method = modified trap
totiter = 145308
traniter = 144784
tranpoints = 54430
accept = 39621
rejected = 14809
matrix size = 106
fillins = 54
solver = Normal
Matrix Compiler1: 10.16 KB object code size  7.8/3.6/[1.9]
Matrix Compiler2: 10.12 KB object code size  2.8/3.0/[1.5]

