Circuit: * Z:\home\user\Documents\PCB\transistor_clock\LTSpice\Draft1.asc

Direct Newton iteration for .op point succeeded.

Date: Thu Sep 28 12:46:59 2023
Total elapsed time: 0.460 seconds.

tnom = 27
temp = 27
method = modified trap
totiter = 10468
traniter = 10430
tranpoints = 4026
accept = 3197
rejected = 829
matrix size = 59
fillins = 62
solver = Normal
Matrix Compiler1: 8.11 KB object code size  4.0/1.8/[1.2]
Matrix Compiler2: 6.19 KB object code size  1.2/1.8/[1.1]

