Circuit: * Z:\home\user\Documents\PCB\transistor_clock\LTSpice\Draft1.asc

.OP point found by inspection.

Date: Sat Sep 30 11:29:15 2023
Total elapsed time: 0.145 seconds.

tnom = 27
temp = 27
method = modified trap
totiter = 3312
traniter = 3312
tranpoints = 1482
accept = 1367
rejected = 115
matrix size = 19
fillins = 3
solver = Normal
Matrix Compiler1: 1.36 KB object code size  1.1/0.6/[0.5]
Matrix Compiler2: 1.59 KB object code size  0.6/0.8/[0.5]

