Circuit: * C:\Users\nxf69791\OneDrive - NXP\Documents\Kicad\PCB_Kicad\transistor_clock\LTSpice\Draft1.asc

Direct Newton iteration for .op point succeeded.
.step rt=3800
.step rt=10000

Date: Wed Sep 27 09:29:09 2023
Total elapsed time: 0.718 seconds.

tnom = 27
temp = 27
method = modified trap
totiter = 9144
traniter = 9094
tranpoints = 3274
accept = 2597
rejected = 677
matrix size = 24
fillins = 10
solver = Normal
Matrix Compiler1: 2.11 KB object code size  0.6/0.4/[0.2]
Matrix Compiler2: 2.15 KB object code size  0.3/0.5/[0.3]

