Circuit: * Z:\home\user\Documents\PCB\transistor_clock\LTSpice\Draft1.asc

Direct Newton iteration for .op point succeeded.

Date: Thu Sep 28 18:04:42 2023
Total elapsed time: 0.542 seconds.

tnom = 27
temp = 27
method = modified trap
totiter = 8870
traniter = 8847
tranpoints = 3308
accept = 2649
rejected = 659
matrix size = 59
fillins = 62
solver = Normal
Matrix Compiler1: 8.11 KB object code size  4.3/2.7/[1.6]
Matrix Compiler2: 6.19 KB object code size  1.8/2.5/[1.5]

