Circuit: * Z:\home\user\Documents\PCB\transistor_clock\LTSpice\Oscillator.asc

.OP point found by inspection.

Date: Thu Sep 28 15:27:03 2023
Total elapsed time: 0.139 seconds.

tnom = 27
temp = 27
method = modified trap
totiter = 2475
traniter = 2475
tranpoints = 1186
accept = 1145
rejected = 41
matrix size = 15
fillins = 8
solver = Normal
Matrix Compiler1: 1.43 KB object code size  1.0/0.5/[0.4]
Matrix Compiler2: 1.42 KB object code size  0.4/0.5/[0.4]

