Questionable use of curly braces in "v1 pwm 0 pulse(0 {vcc} 0 {0.5/fpwm} {0.5/fpwm} 0 {1/fpwm})"
    Error: undefined symbol in: "[vcc]"
Questionable use of curly braces in "v2 n002 0 {ph1duty*vcc}"
    Error: undefined symbol in: "[ph1duty]*vcc"
Questionable use of curly braces in "v3 com 0 {vcc}"
    Error: undefined symbol in: "[vcc]"
Questionable use of curly braces in "v4 n001 0 sine({vcc/2} {ph2amp*vcc} {ph2freq} 0 0 90)"
    Error: undefined symbol in: "[vcc]/2"
Questionable use of curly braces in "v4 n001 0 sine((vcc/2) {ph2amp*vcc} {ph2freq} 0 0 90)"
    Error: undefined symbol in: "[ph2amp]*vcc"
Questionable use of curly braces in "v4 n001 0 sine((vcc/2) (ph2amp*vcc) {ph2freq} 0 0 90)"
    Error: undefined symbol in: "[ph2freq]"
Questionable use of curly braces in "l1 ph1 ph2 {l} rser=5m"
    Error: undefined symbol in: "[l]"
Questionable use of curly braces in "v5 vdc 0 {vbus} rser=1m"
    Error: undefined symbol in: "[vbus]"
Questionable use of curly braces in ".tran {5/ph2freq}"
    Error: undefined symbol in: "5/[ph2freq]"
Circuit: * C:\Users\nxf69791\Documents\Kicad\PCB_Kicad\hv_discharge_v2c\Draft2.asc

