Circuit: * C:\Users\nxf69791\Documents\Kicad\PCB_Kicad\hv_discharge_v2c\Rbot_bias_sim.asc

Direct Newton iteration for .op point succeeded.
.step rbot=100000
.step rbot=110000
.step rbot=120000
.step rbot=130000
.step rbot=140000
.step rbot=150000
.step rbot=160000
.step rbot=170000
.step rbot=180000
.step rbot=190000
.step rbot=200000
.step rbot=210000
.step rbot=220000
.step rbot=230000
.step rbot=240000
.step rbot=250000
.step rbot=260000
.step rbot=270000
.step rbot=280000
.step rbot=290000
.step rbot=300000
.step rbot=310000
.step rbot=320000
.step rbot=330000
.step rbot=340000
.step rbot=350000
.step rbot=360000
.step rbot=370000
.step rbot=380000
.step rbot=390000
.step rbot=400000
.step rbot=410000
.step rbot=420000
.step rbot=430000
.step rbot=440000
.step rbot=450000
.step rbot=460000
.step rbot=470000
.step rbot=480000
.step rbot=490000
.step rbot=500000
.step rbot=510000
.step rbot=520000
.step rbot=530000
.step rbot=540000
.step rbot=550000
.step rbot=560000
.step rbot=570000
.step rbot=580000
.step rbot=590000
.step rbot=600000
.step rbot=610000
.step rbot=620000
.step rbot=630000
.step rbot=640000
.step rbot=650000
.step rbot=660000
.step rbot=670000
.step rbot=680000
.step rbot=690000
.step rbot=700000
.step rbot=710000
.step rbot=720000
.step rbot=730000
.step rbot=740000
.step rbot=750000
.step rbot=760000
.step rbot=770000
.step rbot=780000
.step rbot=790000
.step rbot=800000
.step rbot=810000
.step rbot=820000
.step rbot=830000
.step rbot=840000
.step rbot=850000
.step rbot=860000
.step rbot=870000
.step rbot=880000
.step rbot=890000
.step rbot=900000
.step rbot=910000
.step rbot=920000
.step rbot=930000
.step rbot=940000
.step rbot=950000
.step rbot=960000
.step rbot=970000
.step rbot=980000
.step rbot=990000
.step rbot=1e+006


Measurement: vth
  step	v(vdc)	at
     1	93.7309	0.0937309
     2	85.5282	0.0855282
     3	78.6926	0.0786926
     4	72.9089	0.0729089
     5	67.952	0.067952
     6	63.6555	0.0636555
     7	59.8963	0.0598963
     8	56.579	0.056579
     9	53.6309	0.0536309
    10	50.9927	0.0509927
    11	48.6175	0.0486175
    12	46.4692	0.0464692
    13	44.5161	0.0445161
    14	42.7335	0.0427335
    15	41.0994	0.0410994
    16	39.5961	0.0395961
    17	38.2085	0.0382085
    18	36.9237	0.0369237
    19	35.7307	0.0357307
    20	34.6201	0.0346201
    21	33.5834	0.0335834
    22	32.6137	0.0326137
    23	31.7047	0.0317047
    24	30.8507	0.0308507
    25	30.0467	0.0300467
    26	29.2889	0.0292889
    27	28.5736	0.0285736
    28	27.8966	0.0278966
    29	27.2556	0.0272556
    30	26.6471	0.0266471
    31	26.0692	0.0260692
    32	25.5195	0.0255195
    33	24.9963	0.0249963
    34	24.497	0.024497
    35	24.0205	0.0240205
    36	23.5659	0.0235659
    37	23.1305	0.0231305
    38	22.7136	0.0227136
    39	22.3142	0.0223142
    40	21.9309	0.0219309
    41	21.5631	0.0215631
    42	21.2097	0.0212097
    43	20.8699	0.0208699
    44	20.5429	0.0205429
    45	20.2281	0.0202281
    46	19.9247	0.0199247
    47	19.632	0.019632
    48	19.3499	0.0193499
    49	19.0774	0.0190774
    50	18.8141	0.0188141
    51	18.5597	0.0185597
    52	18.3135	0.0183135
    53	18.0752	0.0180752
    54	17.8446	0.0178446
    55	17.6211	0.0176211
    56	17.4047	0.0174047
    57	17.1949	0.0171949
    58	16.991	0.016991
    59	16.7935	0.0167935
    60	16.6011	0.0166011
    61	16.4148	0.0164148
    62	16.2337	0.0162337
    63	16.0573	0.0160573
    64	15.8861	0.0158861
    65	15.7196	0.0157196
    66	15.5575	0.0155575
    67	15.3996	0.0153996
    68	15.2455	0.0152455
    69	15.0957	0.0150957
    70	14.9498	0.0149498
    71	14.8075	0.0148075
    72	14.6673	0.0146673
    73	14.532	0.014532
    74	14.3999	0.0143999
    75	14.2702	0.0142702
    76	14.1443	0.0141443
    77	14.0213	0.0140213
    78	13.9012	0.0139012
    79	13.7838	0.0137838
    80	13.6691	0.0136691
    81	13.5569	0.0135569
    82	13.4472	0.0134472
    83	13.3398	0.0133398
    84	13.234	0.013234
    85	13.1313	0.0131313
    86	13.0307	0.0130307
    87	12.9322	0.0129322
    88	12.8357	0.0128357
    89	12.7412	0.0127412
    90	12.6487	0.0126487
    91	12.558	0.012558


Date: Mon Sep 19 13:34:17 2022
Total elapsed time: 1.926 seconds.

tnom = 27
temp = 27
method = modified trap
totiter = 2125
traniter = 2108
tranpoints = 1053
accept = 1053
rejected = 0
matrix size = 4
fillins = 0
solver = Normal
Matrix Compiler1: 100 bytes object code size  0.0/0.0/[0.0]
Matrix Compiler2: off  [0.0]/0.1/0.0

